ieee-cdf/ieee-cdf-converter/src/test/resources/ieee118cdf.xiidm
<?xml version="1.0" encoding="UTF-8"?>
<iidm:network xmlns:iidm="http://www.powsybl.org/schema/iidm/1_17" xmlns:slt="http://www.powsybl.org/schema/iidm/ext/slack_terminal/1_5" id="ieee118cdf" caseDate="1993-08-25T00:00:00.000Z" forecastDistance="0" sourceFormat="IEEE-CDF" minimumValidationLevel="STEADY_STATE_HYPOTHESIS">
    <iidm:substation id="S1">
        <iidm:voltageLevel id="VL1" nominalV="138.0" topologyKind="BUS_BREAKER">
            <iidm:busBreakerTopology>
                <iidm:bus id="B1" name="Riversde  V2" v="131.79" angle="10.67"/>
            </iidm:busBreakerTopology>
            <iidm:generator id="B1-G" energySource="OTHER" minP="-9999.0" maxP="9999.0" targetP="0.0" localTargetV="131.79" localTargetQ="0.0" bus="B1" connectableBus="B1">
                <iidm:minMaxReactiveLimits minQ="-5.0" maxQ="15.0"/>
                <iidm:voltageRegulation mode="VOLTAGE" regulating="true"/>
            </iidm:generator>
            <iidm:load id="B1-L" loadType="UNDEFINED" p0="51.0" q0="27.0" bus="B1" connectableBus="B1"/>
        </iidm:voltageLevel>
    </iidm:substation>
    <iidm:substation id="S2">
        <iidm:voltageLevel id="VL2" nominalV="138.0" topologyKind="BUS_BREAKER">
            <iidm:busBreakerTopology>
                <iidm:bus id="B2" name="Pokagon   V2" v="133.998" angle="11.22"/>
            </iidm:busBreakerTopology>
            <iidm:load id="B2-L" loadType="UNDEFINED" p0="20.0" q0="9.0" bus="B2" connectableBus="B2"/>
        </iidm:voltageLevel>
    </iidm:substation>
    <iidm:substation id="S3">
        <iidm:voltageLevel id="VL3" nominalV="138.0" topologyKind="BUS_BREAKER">
            <iidm:busBreakerTopology>
                <iidm:bus id="B3" name="HickryCk  V2" v="133.584" angle="11.56"/>
            </iidm:busBreakerTopology>
            <iidm:load id="B3-L" loadType="UNDEFINED" p0="39.0" q0="10.0" bus="B3" connectableBus="B3"/>
        </iidm:voltageLevel>
    </iidm:substation>
    <iidm:substation id="S4">
        <iidm:voltageLevel id="VL4" nominalV="138.0" topologyKind="BUS_BREAKER">
            <iidm:busBreakerTopology>
                <iidm:bus id="B4" name="NwCarlsl  V2" v="137.724" angle="15.28"/>
            </iidm:busBreakerTopology>
            <iidm:generator id="B4-G" energySource="OTHER" minP="-9999.0" maxP="9999.0" targetP="-9.0" localTargetV="137.724" localTargetQ="0.0" bus="B4" connectableBus="B4">
                <iidm:minMaxReactiveLimits minQ="-300.0" maxQ="300.0"/>
                <iidm:voltageRegulation mode="VOLTAGE" regulating="true"/>
            </iidm:generator>
            <iidm:load id="B4-L" loadType="UNDEFINED" p0="30.0" q0="12.0" bus="B4" connectableBus="B4"/>
        </iidm:voltageLevel>
    </iidm:substation>
    <iidm:substation id="S5">
        <iidm:voltageLevel id="VL5" nominalV="138.0" topologyKind="BUS_BREAKER">
            <iidm:busBreakerTopology>
                <iidm:bus id="B5" name="Olive     V2" v="138.276" angle="15.73"/>
            </iidm:busBreakerTopology>
            <iidm:shuntCompensator id="B5-SH" sectionCount="1" bus="B5" connectableBus="B5">
                <iidm:shuntLinearModel bPerSection="-0.002100399075824407" maximumSectionCount="1"/>
            </iidm:shuntCompensator>
        </iidm:voltageLevel>
        <iidm:voltageLevel id="VL8" nominalV="345.0" topologyKind="BUS_BREAKER">
            <iidm:busBreakerTopology>
                <iidm:bus id="B8" name="Olive     V1" v="350.17499999999995" angle="20.77"/>
            </iidm:busBreakerTopology>
            <iidm:generator id="B8-G" energySource="OTHER" minP="-9999.0" maxP="9999.0" targetP="-28.0" localTargetV="350.17499999999995" localTargetQ="0.0" bus="B8" connectableBus="B8">
                <iidm:minMaxReactiveLimits minQ="-300.0" maxQ="300.0"/>
                <iidm:voltageRegulation mode="VOLTAGE" regulating="true"/>
            </iidm:generator>
        </iidm:voltageLevel>
        <iidm:twoWindingsTransformer id="T8-5-1" r="0.0" x="5.084748" ratedU1="339.825" ratedU2="138.0" bus1="B8" connectableBus1="B8" voltageLevelId1="VL8" bus2="B5" connectableBus2="B5" voltageLevelId2="VL5"/>
    </iidm:substation>
    <iidm:substation id="S6">
        <iidm:voltageLevel id="VL6" nominalV="138.0" topologyKind="BUS_BREAKER">
            <iidm:busBreakerTopology>
                <iidm:bus id="B6" name="Kankakee  V2" v="136.62" angle="13.0"/>
            </iidm:busBreakerTopology>
            <iidm:generator id="B6-G" energySource="OTHER" minP="-9999.0" maxP="9999.0" targetP="0.0" localTargetV="136.62" localTargetQ="0.0" bus="B6" connectableBus="B6">
                <iidm:minMaxReactiveLimits minQ="-13.0" maxQ="50.0"/>
                <iidm:voltageRegulation mode="VOLTAGE" regulating="true"/>
            </iidm:generator>
            <iidm:load id="B6-L" loadType="UNDEFINED" p0="52.0" q0="22.0" bus="B6" connectableBus="B6"/>
        </iidm:voltageLevel>
    </iidm:substation>
    <iidm:substation id="S7">
        <iidm:voltageLevel id="VL7" nominalV="138.0" topologyKind="BUS_BREAKER">
            <iidm:busBreakerTopology>
                <iidm:bus id="B7" name="JacksnRd  V2" v="136.482" angle="12.56"/>
            </iidm:busBreakerTopology>
            <iidm:load id="B7-L" loadType="UNDEFINED" p0="19.0" q0="2.0" bus="B7" connectableBus="B7"/>
        </iidm:voltageLevel>
    </iidm:substation>
    <iidm:substation id="S9">
        <iidm:voltageLevel id="VL9" nominalV="345.0" topologyKind="BUS_BREAKER">
            <iidm:busBreakerTopology>
                <iidm:bus id="B9" name="Bequine   V1" v="359.835" angle="28.02"/>
            </iidm:busBreakerTopology>
        </iidm:voltageLevel>
    </iidm:substation>
    <iidm:substation id="S10">
        <iidm:voltageLevel id="VL10" nominalV="345.0" topologyKind="BUS_BREAKER">
            <iidm:busBreakerTopology>
                <iidm:bus id="B10" name="Breed     V1" v="362.25" angle="35.61"/>
            </iidm:busBreakerTopology>
            <iidm:generator id="B10-G" energySource="OTHER" minP="-9999.0" maxP="9999.0" targetP="450.0" localTargetV="362.25" localTargetQ="0.0" bus="B10" connectableBus="B10">
                <iidm:minMaxReactiveLimits minQ="-147.0" maxQ="200.0"/>
                <iidm:voltageRegulation mode="VOLTAGE" regulating="true"/>
            </iidm:generator>
        </iidm:voltageLevel>
    </iidm:substation>
    <iidm:substation id="S11">
        <iidm:voltageLevel id="VL11" nominalV="138.0" topologyKind="BUS_BREAKER">
            <iidm:busBreakerTopology>
                <iidm:bus id="B11" name="SouthBnd  V2" v="135.93" angle="12.72"/>
            </iidm:busBreakerTopology>
            <iidm:load id="B11-L" loadType="UNDEFINED" p0="70.0" q0="23.0" bus="B11" connectableBus="B11"/>
        </iidm:voltageLevel>
    </iidm:substation>
    <iidm:substation id="S12">
        <iidm:voltageLevel id="VL12" nominalV="138.0" topologyKind="BUS_BREAKER">
            <iidm:busBreakerTopology>
                <iidm:bus id="B12" name="TwinBrch  V2" v="136.62" angle="12.2"/>
            </iidm:busBreakerTopology>
            <iidm:generator id="B12-G" energySource="OTHER" minP="-9999.0" maxP="9999.0" targetP="85.0" localTargetV="136.62" localTargetQ="0.0" bus="B12" connectableBus="B12">
                <iidm:minMaxReactiveLimits minQ="-35.0" maxQ="120.0"/>
                <iidm:voltageRegulation mode="VOLTAGE" regulating="true"/>
            </iidm:generator>
            <iidm:load id="B12-L" loadType="UNDEFINED" p0="47.0" q0="10.0" bus="B12" connectableBus="B12"/>
        </iidm:voltageLevel>
    </iidm:substation>
    <iidm:substation id="S13">
        <iidm:voltageLevel id="VL13" nominalV="138.0" topologyKind="BUS_BREAKER">
            <iidm:busBreakerTopology>
                <iidm:bus id="B13" name="Concord   V2" v="133.584" angle="11.35"/>
            </iidm:busBreakerTopology>
            <iidm:load id="B13-L" loadType="UNDEFINED" p0="34.0" q0="16.0" bus="B13" connectableBus="B13"/>
        </iidm:voltageLevel>
    </iidm:substation>
    <iidm:substation id="S14">
        <iidm:voltageLevel id="VL14" nominalV="138.0" topologyKind="BUS_BREAKER">
            <iidm:busBreakerTopology>
                <iidm:bus id="B14" name="GoshenJt  V2" v="135.792" angle="11.5"/>
            </iidm:busBreakerTopology>
            <iidm:load id="B14-L" loadType="UNDEFINED" p0="14.0" q0="1.0" bus="B14" connectableBus="B14"/>
        </iidm:voltageLevel>
    </iidm:substation>
    <iidm:substation id="S15">
        <iidm:voltageLevel id="VL15" nominalV="138.0" topologyKind="BUS_BREAKER">
            <iidm:busBreakerTopology>
                <iidm:bus id="B15" name="FtWayne   V2" v="133.85999999999999" angle="11.23"/>
            </iidm:busBreakerTopology>
            <iidm:generator id="B15-G" energySource="OTHER" minP="-9999.0" maxP="9999.0" targetP="0.0" localTargetV="133.85999999999999" localTargetQ="0.0" bus="B15" connectableBus="B15">
                <iidm:minMaxReactiveLimits minQ="-10.0" maxQ="30.0"/>
                <iidm:voltageRegulation mode="VOLTAGE" regulating="true"/>
            </iidm:generator>
            <iidm:load id="B15-L" loadType="UNDEFINED" p0="90.0" q0="30.0" bus="B15" connectableBus="B15"/>
        </iidm:voltageLevel>
    </iidm:substation>
    <iidm:substation id="S16">
        <iidm:voltageLevel id="VL16" nominalV="138.0" topologyKind="BUS_BREAKER">
            <iidm:busBreakerTopology>
                <iidm:bus id="B16" name="N. E.     V2" v="135.792" angle="11.91"/>
            </iidm:busBreakerTopology>
            <iidm:load id="B16-L" loadType="UNDEFINED" p0="25.0" q0="10.0" bus="B16" connectableBus="B16"/>
        </iidm:voltageLevel>
    </iidm:substation>
    <iidm:substation id="S17">
        <iidm:voltageLevel id="VL17" nominalV="138.0" topologyKind="BUS_BREAKER">
            <iidm:busBreakerTopology>
                <iidm:bus id="B17" name="Sorenson  V2" v="137.31" angle="13.74"/>
            </iidm:busBreakerTopology>
            <iidm:load id="B17-L" loadType="UNDEFINED" p0="11.0" q0="3.0" bus="B17" connectableBus="B17"/>
        </iidm:voltageLevel>
        <iidm:voltageLevel id="VL30" nominalV="345.0" topologyKind="BUS_BREAKER">
            <iidm:busBreakerTopology>
                <iidm:bus id="B30" name="Sorenson  V1" v="333.96" angle="18.79"/>
            </iidm:busBreakerTopology>
        </iidm:voltageLevel>
        <iidm:twoWindingsTransformer id="T30-17-1" r="0.0" x="7.3890720000000005" ratedU1="331.2" ratedU2="138.0" bus1="B30" connectableBus1="B30" voltageLevelId1="VL30" bus2="B17" connectableBus2="B17" voltageLevelId2="VL17"/>
    </iidm:substation>
    <iidm:substation id="S18">
        <iidm:voltageLevel id="VL18" nominalV="138.0" topologyKind="BUS_BREAKER">
            <iidm:busBreakerTopology>
                <iidm:bus id="B18" name="McKinley  V2" v="134.274" angle="11.53"/>
            </iidm:busBreakerTopology>
            <iidm:generator id="B18-G" energySource="OTHER" minP="-9999.0" maxP="9999.0" targetP="0.0" localTargetV="134.274" localTargetQ="0.0" bus="B18" connectableBus="B18">
                <iidm:minMaxReactiveLimits minQ="-16.0" maxQ="50.0"/>
                <iidm:voltageRegulation mode="VOLTAGE" regulating="true"/>
            </iidm:generator>
            <iidm:load id="B18-L" loadType="UNDEFINED" p0="60.0" q0="34.0" bus="B18" connectableBus="B18"/>
        </iidm:voltageLevel>
    </iidm:substation>
    <iidm:substation id="S19">
        <iidm:voltageLevel id="VL19" nominalV="138.0" topologyKind="BUS_BREAKER">
            <iidm:busBreakerTopology>
                <iidm:bus id="B19" name="Lincoln   V2" v="132.894" angle="11.05"/>
            </iidm:busBreakerTopology>
            <iidm:generator id="B19-G" energySource="OTHER" minP="-9999.0" maxP="9999.0" targetP="0.0" localTargetV="132.756" localTargetQ="0.0" bus="B19" connectableBus="B19">
                <iidm:minMaxReactiveLimits minQ="-8.0" maxQ="24.0"/>
                <iidm:voltageRegulation mode="VOLTAGE" regulating="true"/>
            </iidm:generator>
            <iidm:load id="B19-L" loadType="UNDEFINED" p0="45.0" q0="25.0" bus="B19" connectableBus="B19"/>
        </iidm:voltageLevel>
    </iidm:substation>
    <iidm:substation id="S20">
        <iidm:voltageLevel id="VL20" nominalV="138.0" topologyKind="BUS_BREAKER">
            <iidm:busBreakerTopology>
                <iidm:bus id="B20" name="Adams     V2" v="132.204" angle="11.93"/>
            </iidm:busBreakerTopology>
            <iidm:load id="B20-L" loadType="UNDEFINED" p0="18.0" q0="3.0" bus="B20" connectableBus="B20"/>
        </iidm:voltageLevel>
    </iidm:substation>
    <iidm:substation id="S21">
        <iidm:voltageLevel id="VL21" nominalV="138.0" topologyKind="BUS_BREAKER">
            <iidm:busBreakerTopology>
                <iidm:bus id="B21" name="Jay       V2" v="132.34199999999998" angle="13.52"/>
            </iidm:busBreakerTopology>
            <iidm:load id="B21-L" loadType="UNDEFINED" p0="14.0" q0="8.0" bus="B21" connectableBus="B21"/>
        </iidm:voltageLevel>
    </iidm:substation>
    <iidm:substation id="S22">
        <iidm:voltageLevel id="VL22" nominalV="138.0" topologyKind="BUS_BREAKER">
            <iidm:busBreakerTopology>
                <iidm:bus id="B22" name="Randolph  V2" v="133.85999999999999" angle="16.08"/>
            </iidm:busBreakerTopology>
            <iidm:load id="B22-L" loadType="UNDEFINED" p0="10.0" q0="5.0" bus="B22" connectableBus="B22"/>
        </iidm:voltageLevel>
    </iidm:substation>
    <iidm:substation id="S23">
        <iidm:voltageLevel id="VL23" nominalV="138.0" topologyKind="BUS_BREAKER">
            <iidm:busBreakerTopology>
                <iidm:bus id="B23" name="CollCrnr  V2" v="138.0" angle="21.0"/>
            </iidm:busBreakerTopology>
            <iidm:load id="B23-L" loadType="UNDEFINED" p0="7.0" q0="3.0" bus="B23" connectableBus="B23"/>
        </iidm:voltageLevel>
    </iidm:substation>
    <iidm:substation id="S24">
        <iidm:voltageLevel id="VL24" nominalV="138.0" topologyKind="BUS_BREAKER">
            <iidm:busBreakerTopology>
                <iidm:bus id="B24" name="Trenton   V2" v="136.896" angle="20.89"/>
            </iidm:busBreakerTopology>
            <iidm:generator id="B24-G" energySource="OTHER" minP="-9999.0" maxP="9999.0" targetP="-13.0" localTargetV="136.896" localTargetQ="0.0" bus="B24" connectableBus="B24">
                <iidm:minMaxReactiveLimits minQ="-300.0" maxQ="300.0"/>
                <iidm:voltageRegulation mode="VOLTAGE" regulating="true"/>
            </iidm:generator>
        </iidm:voltageLevel>
    </iidm:substation>
    <iidm:substation id="S25">
        <iidm:voltageLevel id="VL25" nominalV="138.0" topologyKind="BUS_BREAKER">
            <iidm:busBreakerTopology>
                <iidm:bus id="B25" name="TannrsCk  V2" v="144.9" angle="27.93"/>
            </iidm:busBreakerTopology>
            <iidm:generator id="B25-G" energySource="OTHER" minP="-9999.0" maxP="9999.0" targetP="220.0" localTargetV="144.9" localTargetQ="0.0" bus="B25" connectableBus="B25">
                <iidm:minMaxReactiveLimits minQ="-47.0" maxQ="140.0"/>
                <iidm:voltageRegulation mode="VOLTAGE" regulating="true"/>
            </iidm:generator>
        </iidm:voltageLevel>
        <iidm:voltageLevel id="VL26" nominalV="345.0" topologyKind="BUS_BREAKER">
            <iidm:busBreakerTopology>
                <iidm:bus id="B26" name="TannrsCk  V1" v="350.17499999999995" angle="29.71"/>
            </iidm:busBreakerTopology>
            <iidm:generator id="B26-G" energySource="OTHER" minP="-9999.0" maxP="9999.0" targetP="314.0" localTargetV="350.17499999999995" localTargetQ="0.0" bus="B26" connectableBus="B26">
                <iidm:minMaxReactiveLimits minQ="-1000.0" maxQ="1000.0"/>
                <iidm:voltageRegulation mode="VOLTAGE" regulating="true"/>
            </iidm:generator>
        </iidm:voltageLevel>
        <iidm:twoWindingsTransformer id="T26-25-1" r="0.0" x="7.274807999999999" ratedU1="331.2" ratedU2="138.0" bus1="B26" connectableBus1="B26" voltageLevelId1="VL26" bus2="B25" connectableBus2="B25" voltageLevelId2="VL25"/>
    </iidm:substation>
    <iidm:substation id="S27">
        <iidm:voltageLevel id="VL27" nominalV="138.0" topologyKind="BUS_BREAKER">
            <iidm:busBreakerTopology>
                <iidm:bus id="B27" name="Madison   V2" v="133.584" angle="15.35"/>
            </iidm:busBreakerTopology>
            <iidm:generator id="B27-G" energySource="OTHER" minP="-9999.0" maxP="9999.0" targetP="-9.0" localTargetV="133.584" localTargetQ="0.0" bus="B27" connectableBus="B27">
                <iidm:minMaxReactiveLimits minQ="-300.0" maxQ="300.0"/>
                <iidm:voltageRegulation mode="VOLTAGE" regulating="true"/>
            </iidm:generator>
            <iidm:load id="B27-L" loadType="UNDEFINED" p0="62.0" q0="13.0" bus="B27" connectableBus="B27"/>
        </iidm:voltageLevel>
    </iidm:substation>
    <iidm:substation id="S28">
        <iidm:voltageLevel id="VL28" nominalV="138.0" topologyKind="BUS_BREAKER">
            <iidm:busBreakerTopology>
                <iidm:bus id="B28" name="Mullin    V2" v="132.756" angle="13.62"/>
            </iidm:busBreakerTopology>
            <iidm:load id="B28-L" loadType="UNDEFINED" p0="17.0" q0="7.0" bus="B28" connectableBus="B28"/>
        </iidm:voltageLevel>
    </iidm:substation>
    <iidm:substation id="S29">
        <iidm:voltageLevel id="VL29" nominalV="138.0" topologyKind="BUS_BREAKER">
            <iidm:busBreakerTopology>
                <iidm:bus id="B29" name="Grant     V2" v="132.894" angle="12.63"/>
            </iidm:busBreakerTopology>
            <iidm:load id="B29-L" loadType="UNDEFINED" p0="24.0" q0="4.0" bus="B29" connectableBus="B29"/>
        </iidm:voltageLevel>
    </iidm:substation>
    <iidm:substation id="S31">
        <iidm:voltageLevel id="VL31" nominalV="138.0" topologyKind="BUS_BREAKER">
            <iidm:busBreakerTopology>
                <iidm:bus id="B31" name="DeerCrk   V2" v="133.446" angle="12.75"/>
            </iidm:busBreakerTopology>
            <iidm:generator id="B31-G" energySource="OTHER" minP="-9999.0" maxP="9999.0" targetP="7.0" localTargetV="133.446" localTargetQ="0.0" bus="B31" connectableBus="B31">
                <iidm:minMaxReactiveLimits minQ="-300.0" maxQ="300.0"/>
                <iidm:voltageRegulation mode="VOLTAGE" regulating="true"/>
            </iidm:generator>
            <iidm:load id="B31-L" loadType="UNDEFINED" p0="43.0" q0="27.0" bus="B31" connectableBus="B31"/>
        </iidm:voltageLevel>
    </iidm:substation>
    <iidm:substation id="S32">
        <iidm:voltageLevel id="VL32" nominalV="138.0" topologyKind="BUS_BREAKER">
            <iidm:busBreakerTopology>
                <iidm:bus id="B32" name="Delaware  V2" v="133.03199999999998" angle="14.8"/>
            </iidm:busBreakerTopology>
            <iidm:generator id="B32-G" energySource="OTHER" minP="-9999.0" maxP="9999.0" targetP="0.0" localTargetV="132.894" localTargetQ="0.0" bus="B32" connectableBus="B32">
                <iidm:minMaxReactiveLimits minQ="-14.0" maxQ="42.0"/>
                <iidm:voltageRegulation mode="VOLTAGE" regulating="true"/>
            </iidm:generator>
            <iidm:load id="B32-L" loadType="UNDEFINED" p0="59.0" q0="23.0" bus="B32" connectableBus="B32"/>
        </iidm:voltageLevel>
    </iidm:substation>
    <iidm:substation id="S33">
        <iidm:voltageLevel id="VL33" nominalV="138.0" topologyKind="BUS_BREAKER">
            <iidm:busBreakerTopology>
                <iidm:bus id="B33" name="Haviland  V2" v="134.136" angle="10.63"/>
            </iidm:busBreakerTopology>
            <iidm:load id="B33-L" loadType="UNDEFINED" p0="23.0" q0="9.0" bus="B33" connectableBus="B33"/>
        </iidm:voltageLevel>
    </iidm:substation>
    <iidm:substation id="S34">
        <iidm:voltageLevel id="VL34" nominalV="138.0" topologyKind="BUS_BREAKER">
            <iidm:busBreakerTopology>
                <iidm:bus id="B34" name="Rockhill  V2" v="136.068" angle="11.3"/>
            </iidm:busBreakerTopology>
            <iidm:generator id="B34-G" energySource="OTHER" minP="-9999.0" maxP="9999.0" targetP="0.0" localTargetV="135.792" localTargetQ="0.0" bus="B34" connectableBus="B34">
                <iidm:minMaxReactiveLimits minQ="-8.0" maxQ="24.0"/>
                <iidm:voltageRegulation mode="VOLTAGE" regulating="true"/>
            </iidm:generator>
            <iidm:load id="B34-L" loadType="UNDEFINED" p0="59.0" q0="26.0" bus="B34" connectableBus="B34"/>
            <iidm:shuntCompensator id="B34-SH" sectionCount="1" bus="B34" connectableBus="B34">
                <iidm:shuntLinearModel bPerSection="7.351396765385424E-4" maximumSectionCount="1"/>
            </iidm:shuntCompensator>
        </iidm:voltageLevel>
    </iidm:substation>
    <iidm:substation id="S35">
        <iidm:voltageLevel id="VL35" nominalV="138.0" topologyKind="BUS_BREAKER">
            <iidm:busBreakerTopology>
                <iidm:bus id="B35" name="WestLima  V2" v="135.378" angle="10.87"/>
            </iidm:busBreakerTopology>
            <iidm:load id="B35-L" loadType="UNDEFINED" p0="33.0" q0="9.0" bus="B35" connectableBus="B35"/>
        </iidm:voltageLevel>
    </iidm:substation>
    <iidm:substation id="S36">
        <iidm:voltageLevel id="VL36" nominalV="138.0" topologyKind="BUS_BREAKER">
            <iidm:busBreakerTopology>
                <iidm:bus id="B36" name="Sterling  V2" v="135.24" angle="10.87"/>
            </iidm:busBreakerTopology>
            <iidm:generator id="B36-G" energySource="OTHER" minP="-9999.0" maxP="9999.0" targetP="0.0" localTargetV="135.24" localTargetQ="0.0" bus="B36" connectableBus="B36">
                <iidm:minMaxReactiveLimits minQ="-8.0" maxQ="24.0"/>
                <iidm:voltageRegulation mode="VOLTAGE" regulating="true"/>
            </iidm:generator>
            <iidm:load id="B36-L" loadType="UNDEFINED" p0="31.0" q0="17.0" bus="B36" connectableBus="B36"/>
        </iidm:voltageLevel>
    </iidm:substation>
    <iidm:substation id="S37">
        <iidm:voltageLevel id="VL37" nominalV="138.0" topologyKind="BUS_BREAKER">
            <iidm:busBreakerTopology>
                <iidm:bus id="B37" name="EastLima  V2" v="136.896" angle="11.77"/>
            </iidm:busBreakerTopology>
            <iidm:shuntCompensator id="B37-SH" sectionCount="1" bus="B37" connectableBus="B37">
                <iidm:shuntLinearModel bPerSection="-0.001312749422390254" maximumSectionCount="1"/>
            </iidm:shuntCompensator>
        </iidm:voltageLevel>
        <iidm:voltageLevel id="VL38" nominalV="345.0" topologyKind="BUS_BREAKER">
            <iidm:busBreakerTopology>
                <iidm:bus id="B38" name="EastLima  V1" v="331.89" angle="16.91"/>
            </iidm:busBreakerTopology>
        </iidm:voltageLevel>
        <iidm:twoWindingsTransformer id="T38-37-1" r="0.0" x="7.1415" ratedU1="322.57500000000005" ratedU2="138.0" bus1="B38" connectableBus1="B38" voltageLevelId1="VL38" bus2="B37" connectableBus2="B37" voltageLevelId2="VL37"/>
    </iidm:substation>
    <iidm:substation id="S39">
        <iidm:voltageLevel id="VL39" nominalV="138.0" topologyKind="BUS_BREAKER">
            <iidm:busBreakerTopology>
                <iidm:bus id="B39" name="NwLibrty  V2" v="133.85999999999999" angle="8.41"/>
            </iidm:busBreakerTopology>
            <iidm:load id="B39-L" loadType="UNDEFINED" p0="27.0" q0="11.0" bus="B39" connectableBus="B39"/>
        </iidm:voltageLevel>
    </iidm:substation>
    <iidm:substation id="S40">
        <iidm:voltageLevel id="VL40" nominalV="138.0" topologyKind="BUS_BREAKER">
            <iidm:busBreakerTopology>
                <iidm:bus id="B40" name="West End  V2" v="133.85999999999999" angle="7.35"/>
            </iidm:busBreakerTopology>
            <iidm:generator id="B40-G" energySource="OTHER" minP="-9999.0" maxP="9999.0" targetP="-46.0" localTargetV="133.85999999999999" localTargetQ="0.0" bus="B40" connectableBus="B40">
                <iidm:minMaxReactiveLimits minQ="-300.0" maxQ="300.0"/>
                <iidm:voltageRegulation mode="VOLTAGE" regulating="true"/>
            </iidm:generator>
            <iidm:load id="B40-L" loadType="UNDEFINED" p0="20.0" q0="23.0" bus="B40" connectableBus="B40"/>
        </iidm:voltageLevel>
    </iidm:substation>
    <iidm:substation id="S41">
        <iidm:voltageLevel id="VL41" nominalV="138.0" topologyKind="BUS_BREAKER">
            <iidm:busBreakerTopology>
                <iidm:bus id="B41" name="S.Tiffin  V2" v="133.446" angle="6.92"/>
            </iidm:busBreakerTopology>
            <iidm:load id="B41-L" loadType="UNDEFINED" p0="37.0" q0="10.0" bus="B41" connectableBus="B41"/>
        </iidm:voltageLevel>
    </iidm:substation>
    <iidm:substation id="S42">
        <iidm:voltageLevel id="VL42" nominalV="138.0" topologyKind="BUS_BREAKER">
            <iidm:busBreakerTopology>
                <iidm:bus id="B42" name="Howard    V2" v="135.93" angle="8.53"/>
            </iidm:busBreakerTopology>
            <iidm:generator id="B42-G" energySource="OTHER" minP="-9999.0" maxP="9999.0" targetP="-59.0" localTargetV="135.93" localTargetQ="0.0" bus="B42" connectableBus="B42">
                <iidm:minMaxReactiveLimits minQ="-300.0" maxQ="300.0"/>
                <iidm:voltageRegulation mode="VOLTAGE" regulating="true"/>
            </iidm:generator>
            <iidm:load id="B42-L" loadType="UNDEFINED" p0="37.0" q0="23.0" bus="B42" connectableBus="B42"/>
        </iidm:voltageLevel>
    </iidm:substation>
    <iidm:substation id="S43">
        <iidm:voltageLevel id="VL43" nominalV="138.0" topologyKind="BUS_BREAKER">
            <iidm:busBreakerTopology>
                <iidm:bus id="B43" name="S.Kenton  V2" v="134.964" angle="11.28"/>
            </iidm:busBreakerTopology>
            <iidm:load id="B43-L" loadType="UNDEFINED" p0="18.0" q0="7.0" bus="B43" connectableBus="B43"/>
        </iidm:voltageLevel>
    </iidm:substation>
    <iidm:substation id="S44">
        <iidm:voltageLevel id="VL44" nominalV="138.0" topologyKind="BUS_BREAKER">
            <iidm:busBreakerTopology>
                <iidm:bus id="B44" name="WMVernon  V2" v="135.93" angle="13.82"/>
            </iidm:busBreakerTopology>
            <iidm:load id="B44-L" loadType="UNDEFINED" p0="16.0" q0="8.0" bus="B44" connectableBus="B44"/>
            <iidm:shuntCompensator id="B44-SH" sectionCount="1" bus="B44" connectableBus="B44">
                <iidm:shuntLinearModel bPerSection="5.250997689561017E-4" maximumSectionCount="1"/>
            </iidm:shuntCompensator>
        </iidm:voltageLevel>
    </iidm:substation>
    <iidm:substation id="S45">
        <iidm:voltageLevel id="VL45" nominalV="138.0" topologyKind="BUS_BREAKER">
            <iidm:busBreakerTopology>
                <iidm:bus id="B45" name="N.Newark  V2" v="136.206" angle="15.67"/>
            </iidm:busBreakerTopology>
            <iidm:load id="B45-L" loadType="UNDEFINED" p0="53.0" q0="22.0" bus="B45" connectableBus="B45"/>
            <iidm:shuntCompensator id="B45-SH" sectionCount="1" bus="B45" connectableBus="B45">
                <iidm:shuntLinearModel bPerSection="5.250997689561017E-4" maximumSectionCount="1"/>
            </iidm:shuntCompensator>
        </iidm:voltageLevel>
    </iidm:substation>
    <iidm:substation id="S46">
        <iidm:voltageLevel id="VL46" nominalV="138.0" topologyKind="BUS_BREAKER">
            <iidm:busBreakerTopology>
                <iidm:bus id="B46" name="W.Lancst  V2" v="138.69" angle="18.49"/>
            </iidm:busBreakerTopology>
            <iidm:generator id="B46-G" energySource="OTHER" minP="-9999.0" maxP="9999.0" targetP="19.0" localTargetV="138.69" localTargetQ="0.0" bus="B46" connectableBus="B46">
                <iidm:minMaxReactiveLimits minQ="-100.0" maxQ="100.0"/>
                <iidm:voltageRegulation mode="VOLTAGE" regulating="true"/>
            </iidm:generator>
            <iidm:load id="B46-L" loadType="UNDEFINED" p0="28.0" q0="10.0" bus="B46" connectableBus="B46"/>
            <iidm:shuntCompensator id="B46-SH" sectionCount="1" bus="B46" connectableBus="B46">
                <iidm:shuntLinearModel bPerSection="5.250997689561017E-4" maximumSectionCount="1"/>
            </iidm:shuntCompensator>
        </iidm:voltageLevel>
    </iidm:substation>
    <iidm:substation id="S47">
        <iidm:voltageLevel id="VL47" nominalV="138.0" topologyKind="BUS_BREAKER">
            <iidm:busBreakerTopology>
                <iidm:bus id="B47" name="Crooksvl  V2" v="140.34599999999998" angle="20.73"/>
            </iidm:busBreakerTopology>
            <iidm:load id="B47-L" loadType="UNDEFINED" p0="34.0" q0="0.0" bus="B47" connectableBus="B47"/>
        </iidm:voltageLevel>
    </iidm:substation>
    <iidm:substation id="S48">
        <iidm:voltageLevel id="VL48" nominalV="138.0" topologyKind="BUS_BREAKER">
            <iidm:busBreakerTopology>
                <iidm:bus id="B48" name="Zanesvll  V2" v="140.898" angle="19.93"/>
            </iidm:busBreakerTopology>
            <iidm:load id="B48-L" loadType="UNDEFINED" p0="20.0" q0="11.0" bus="B48" connectableBus="B48"/>
            <iidm:shuntCompensator id="B48-SH" sectionCount="1" bus="B48" connectableBus="B48">
                <iidm:shuntLinearModel bPerSection="7.876496534341525E-4" maximumSectionCount="1"/>
            </iidm:shuntCompensator>
        </iidm:voltageLevel>
    </iidm:substation>
    <iidm:substation id="S49">
        <iidm:voltageLevel id="VL49" nominalV="138.0" topologyKind="BUS_BREAKER">
            <iidm:busBreakerTopology>
                <iidm:bus id="B49" name="Philo     V2" v="141.45" angle="20.94"/>
            </iidm:busBreakerTopology>
            <iidm:generator id="B49-G" energySource="OTHER" minP="-9999.0" maxP="9999.0" targetP="204.0" localTargetV="141.45" localTargetQ="0.0" bus="B49" connectableBus="B49">
                <iidm:minMaxReactiveLimits minQ="-85.0" maxQ="210.0"/>
                <iidm:voltageRegulation mode="VOLTAGE" regulating="true"/>
            </iidm:generator>
            <iidm:load id="B49-L" loadType="UNDEFINED" p0="87.0" q0="30.0" bus="B49" connectableBus="B49"/>
        </iidm:voltageLevel>
    </iidm:substation>
    <iidm:substation id="S50">
        <iidm:voltageLevel id="VL50" nominalV="138.0" topologyKind="BUS_BREAKER">
            <iidm:busBreakerTopology>
                <iidm:bus id="B50" name="WCambrdg  V2" v="138.13799999999998" angle="18.9"/>
            </iidm:busBreakerTopology>
            <iidm:load id="B50-L" loadType="UNDEFINED" p0="17.0" q0="4.0" bus="B50" connectableBus="B50"/>
        </iidm:voltageLevel>
    </iidm:substation>
    <iidm:substation id="S51">
        <iidm:voltageLevel id="VL51" nominalV="138.0" topologyKind="BUS_BREAKER">
            <iidm:busBreakerTopology>
                <iidm:bus id="B51" name="Newcmrst  V2" v="133.446" angle="16.28"/>
            </iidm:busBreakerTopology>
            <iidm:load id="B51-L" loadType="UNDEFINED" p0="17.0" q0="8.0" bus="B51" connectableBus="B51"/>
        </iidm:voltageLevel>
    </iidm:substation>
    <iidm:substation id="S52">
        <iidm:voltageLevel id="VL52" nominalV="138.0" topologyKind="BUS_BREAKER">
            <iidm:busBreakerTopology>
                <iidm:bus id="B52" name="SCoshoct  V2" v="132.066" angle="15.32"/>
            </iidm:busBreakerTopology>
            <iidm:load id="B52-L" loadType="UNDEFINED" p0="18.0" q0="5.0" bus="B52" connectableBus="B52"/>
        </iidm:voltageLevel>
    </iidm:substation>
    <iidm:substation id="S53">
        <iidm:voltageLevel id="VL53" nominalV="138.0" topologyKind="BUS_BREAKER">
            <iidm:busBreakerTopology>
                <iidm:bus id="B53" name="Wooster   V2" v="130.548" angle="14.35"/>
            </iidm:busBreakerTopology>
            <iidm:load id="B53-L" loadType="UNDEFINED" p0="23.0" q0="11.0" bus="B53" connectableBus="B53"/>
        </iidm:voltageLevel>
    </iidm:substation>
    <iidm:substation id="S54">
        <iidm:voltageLevel id="VL54" nominalV="138.0" topologyKind="BUS_BREAKER">
            <iidm:busBreakerTopology>
                <iidm:bus id="B54" name="Torrey    V2" v="131.79" angle="15.26"/>
            </iidm:busBreakerTopology>
            <iidm:generator id="B54-G" energySource="OTHER" minP="-9999.0" maxP="9999.0" targetP="48.0" localTargetV="131.79" localTargetQ="0.0" bus="B54" connectableBus="B54">
                <iidm:minMaxReactiveLimits minQ="-300.0" maxQ="300.0"/>
                <iidm:voltageRegulation mode="VOLTAGE" regulating="true"/>
            </iidm:generator>
            <iidm:load id="B54-L" loadType="UNDEFINED" p0="113.0" q0="32.0" bus="B54" connectableBus="B54"/>
        </iidm:voltageLevel>
    </iidm:substation>
    <iidm:substation id="S55">
        <iidm:voltageLevel id="VL55" nominalV="138.0" topologyKind="BUS_BREAKER">
            <iidm:busBreakerTopology>
                <iidm:bus id="B55" name="Wagenhls  V2" v="131.376" angle="14.97"/>
            </iidm:busBreakerTopology>
            <iidm:generator id="B55-G" energySource="OTHER" minP="-9999.0" maxP="9999.0" targetP="0.0" localTargetV="131.376" localTargetQ="0.0" bus="B55" connectableBus="B55">
                <iidm:minMaxReactiveLimits minQ="-8.0" maxQ="23.0"/>
                <iidm:voltageRegulation mode="VOLTAGE" regulating="true"/>
            </iidm:generator>
            <iidm:load id="B55-L" loadType="UNDEFINED" p0="63.0" q0="22.0" bus="B55" connectableBus="B55"/>
        </iidm:voltageLevel>
    </iidm:substation>
    <iidm:substation id="S56">
        <iidm:voltageLevel id="VL56" nominalV="138.0" topologyKind="BUS_BREAKER">
            <iidm:busBreakerTopology>
                <iidm:bus id="B56" name="Sunnysde  V2" v="131.652" angle="15.16"/>
            </iidm:busBreakerTopology>
            <iidm:generator id="B56-G" energySource="OTHER" minP="-9999.0" maxP="9999.0" targetP="0.0" localTargetV="131.652" localTargetQ="0.0" bus="B56" connectableBus="B56">
                <iidm:minMaxReactiveLimits minQ="-8.0" maxQ="15.0"/>
                <iidm:voltageRegulation mode="VOLTAGE" regulating="true"/>
            </iidm:generator>
            <iidm:load id="B56-L" loadType="UNDEFINED" p0="84.0" q0="18.0" bus="B56" connectableBus="B56"/>
        </iidm:voltageLevel>
    </iidm:substation>
    <iidm:substation id="S57">
        <iidm:voltageLevel id="VL57" nominalV="138.0" topologyKind="BUS_BREAKER">
            <iidm:busBreakerTopology>
                <iidm:bus id="B57" name="WNwPhil1  V2" v="133.998" angle="16.36"/>
            </iidm:busBreakerTopology>
            <iidm:load id="B57-L" loadType="UNDEFINED" p0="12.0" q0="3.0" bus="B57" connectableBus="B57"/>
        </iidm:voltageLevel>
    </iidm:substation>
    <iidm:substation id="S58">
        <iidm:voltageLevel id="VL58" nominalV="138.0" topologyKind="BUS_BREAKER">
            <iidm:busBreakerTopology>
                <iidm:bus id="B58" name="WNwPhil2  V2" v="132.34199999999998" angle="15.51"/>
            </iidm:busBreakerTopology>
            <iidm:load id="B58-L" loadType="UNDEFINED" p0="12.0" q0="3.0" bus="B58" connectableBus="B58"/>
        </iidm:voltageLevel>
    </iidm:substation>
    <iidm:substation id="S59">
        <iidm:voltageLevel id="VL59" nominalV="138.0" topologyKind="BUS_BREAKER">
            <iidm:busBreakerTopology>
                <iidm:bus id="B59" name="Tidd      V2" v="135.93" angle="19.37"/>
            </iidm:busBreakerTopology>
            <iidm:generator id="B59-G" energySource="OTHER" minP="-9999.0" maxP="9999.0" targetP="155.0" localTargetV="135.93" localTargetQ="0.0" bus="B59" connectableBus="B59">
                <iidm:minMaxReactiveLimits minQ="-60.0" maxQ="180.0"/>
                <iidm:voltageRegulation mode="VOLTAGE" regulating="true"/>
            </iidm:generator>
            <iidm:load id="B59-L" loadType="UNDEFINED" p0="277.0" q0="113.0" bus="B59" connectableBus="B59"/>
        </iidm:voltageLevel>
        <iidm:voltageLevel id="VL63" nominalV="345.0" topologyKind="BUS_BREAKER">
            <iidm:busBreakerTopology>
                <iidm:bus id="B63" name="Tidd      V1" v="334.305" angle="22.75"/>
            </iidm:busBreakerTopology>
        </iidm:voltageLevel>
        <iidm:twoWindingsTransformer id="T63-59-1" r="0.0" x="7.350984" ratedU1="331.2" ratedU2="138.0" bus1="B63" connectableBus1="B63" voltageLevelId1="VL63" bus2="B59" connectableBus2="B59" voltageLevelId2="VL59"/>
    </iidm:substation>
    <iidm:substation id="S60">
        <iidm:voltageLevel id="VL60" nominalV="138.0" topologyKind="BUS_BREAKER">
            <iidm:busBreakerTopology>
                <iidm:bus id="B60" name="SWKammer  V2" v="137.034" angle="23.15"/>
            </iidm:busBreakerTopology>
            <iidm:load id="B60-L" loadType="UNDEFINED" p0="78.0" q0="3.0" bus="B60" connectableBus="B60"/>
        </iidm:voltageLevel>
    </iidm:substation>
    <iidm:substation id="S61">
        <iidm:voltageLevel id="VL61" nominalV="138.0" topologyKind="BUS_BREAKER">
            <iidm:busBreakerTopology>
                <iidm:bus id="B61" name="W.Kammer  V2" v="137.31" angle="24.04"/>
            </iidm:busBreakerTopology>
            <iidm:generator id="B61-G" energySource="OTHER" minP="-9999.0" maxP="9999.0" targetP="160.0" localTargetV="137.31" localTargetQ="0.0" bus="B61" connectableBus="B61">
                <iidm:minMaxReactiveLimits minQ="-100.0" maxQ="300.0"/>
                <iidm:voltageRegulation mode="VOLTAGE" regulating="true"/>
            </iidm:generator>
        </iidm:voltageLevel>
        <iidm:voltageLevel id="VL64" nominalV="345.0" topologyKind="BUS_BREAKER">
            <iidm:busBreakerTopology>
                <iidm:bus id="B64" name="Kammer    V1" v="339.48" angle="24.52"/>
            </iidm:busBreakerTopology>
        </iidm:voltageLevel>
        <iidm:twoWindingsTransformer id="T64-61-1" r="0.0" x="5.103792" ratedU1="339.825" ratedU2="138.0" bus1="B64" connectableBus1="B64" voltageLevelId1="VL64" bus2="B61" connectableBus2="B61" voltageLevelId2="VL61"/>
    </iidm:substation>
    <iidm:substation id="S62">
        <iidm:voltageLevel id="VL62" nominalV="138.0" topologyKind="BUS_BREAKER">
            <iidm:busBreakerTopology>
                <iidm:bus id="B62" name="Natrium   V2" v="137.724" angle="23.43"/>
            </iidm:busBreakerTopology>
            <iidm:generator id="B62-G" energySource="OTHER" minP="-9999.0" maxP="9999.0" targetP="0.0" localTargetV="137.724" localTargetQ="0.0" bus="B62" connectableBus="B62">
                <iidm:minMaxReactiveLimits minQ="-20.0" maxQ="20.0"/>
                <iidm:voltageRegulation mode="VOLTAGE" regulating="true"/>
            </iidm:generator>
            <iidm:load id="B62-L" loadType="UNDEFINED" p0="77.0" q0="14.0" bus="B62" connectableBus="B62"/>
        </iidm:voltageLevel>
    </iidm:substation>
    <iidm:substation id="S65">
        <iidm:voltageLevel id="VL65" nominalV="345.0" topologyKind="BUS_BREAKER">
            <iidm:busBreakerTopology>
                <iidm:bus id="B65" name="Muskngum  V1" v="346.72499999999997" angle="27.65"/>
            </iidm:busBreakerTopology>
            <iidm:generator id="B65-G" energySource="OTHER" minP="-9999.0" maxP="9999.0" targetP="391.0" localTargetV="346.72499999999997" localTargetQ="0.0" bus="B65" connectableBus="B65">
                <iidm:minMaxReactiveLimits minQ="-67.0" maxQ="200.0"/>
                <iidm:voltageRegulation mode="VOLTAGE" regulating="true"/>
            </iidm:generator>
        </iidm:voltageLevel>
        <iidm:voltageLevel id="VL66" nominalV="138.0" topologyKind="BUS_BREAKER">
            <iidm:busBreakerTopology>
                <iidm:bus id="B66" name="Muskngum  V2" v="144.9" angle="27.48"/>
            </iidm:busBreakerTopology>
            <iidm:generator id="B66-G" energySource="OTHER" minP="-9999.0" maxP="9999.0" targetP="392.0" localTargetV="144.9" localTargetQ="0.0" bus="B66" connectableBus="B66">
                <iidm:minMaxReactiveLimits minQ="-67.0" maxQ="200.0"/>
                <iidm:voltageRegulation mode="VOLTAGE" regulating="true"/>
            </iidm:generator>
            <iidm:load id="B66-L" loadType="UNDEFINED" p0="39.0" q0="18.0" bus="B66" connectableBus="B66"/>
        </iidm:voltageLevel>
        <iidm:twoWindingsTransformer id="T65-66-1" r="0.0" x="7.046279999999999" ratedU1="322.57500000000005" ratedU2="138.0" bus1="B65" connectableBus1="B65" voltageLevelId1="VL65" bus2="B66" connectableBus2="B66" voltageLevelId2="VL66"/>
    </iidm:substation>
    <iidm:substation id="S67">
        <iidm:voltageLevel id="VL67" nominalV="138.0" topologyKind="BUS_BREAKER">
            <iidm:busBreakerTopology>
                <iidm:bus id="B67" name="Summerfl  V2" v="140.76" angle="24.84"/>
            </iidm:busBreakerTopology>
            <iidm:load id="B67-L" loadType="UNDEFINED" p0="28.0" q0="7.0" bus="B67" connectableBus="B67"/>
        </iidm:voltageLevel>
    </iidm:substation>
    <iidm:substation id="S68">
        <iidm:voltageLevel id="VL68" nominalV="345.0" topologyKind="BUS_BREAKER">
            <iidm:busBreakerTopology>
                <iidm:bus id="B68" name="Sporn     V1" v="346.03499999999997" angle="27.55"/>
            </iidm:busBreakerTopology>
        </iidm:voltageLevel>
        <iidm:voltageLevel id="VL69" nominalV="138.0" topologyKind="BUS_BREAKER">
            <iidm:busBreakerTopology>
                <iidm:bus id="B69" name="Sporn     V2" v="142.82999999999998" angle="30.0"/>
            </iidm:busBreakerTopology>
            <iidm:generator id="B69-G" energySource="OTHER" minP="-9999.0" maxP="9999.0" targetP="516.4" localTargetV="142.82999999999998" localTargetQ="0.0" bus="B69" connectableBus="B69">
                <iidm:minMaxReactiveLimits minQ="-300.0" maxQ="300.0"/>
                <iidm:voltageRegulation mode="VOLTAGE" regulating="true"/>
            </iidm:generator>
        </iidm:voltageLevel>
        <iidm:twoWindingsTransformer id="T68-69-1" r="0.0" x="7.046279999999999" ratedU1="322.57500000000005" ratedU2="138.0" bus1="B68" connectableBus1="B68" voltageLevelId1="VL68" bus2="B69" connectableBus2="B69" voltageLevelId2="VL69"/>
    </iidm:substation>
    <iidm:substation id="S70">
        <iidm:voltageLevel id="VL70" nominalV="138.0" topologyKind="BUS_BREAKER">
            <iidm:busBreakerTopology>
                <iidm:bus id="B70" name="Portsmth  V2" v="135.792" angle="22.58"/>
            </iidm:busBreakerTopology>
            <iidm:generator id="B70-G" energySource="OTHER" minP="-9999.0" maxP="9999.0" targetP="0.0" localTargetV="135.792" localTargetQ="0.0" bus="B70" connectableBus="B70">
                <iidm:minMaxReactiveLimits minQ="-10.0" maxQ="32.0"/>
                <iidm:voltageRegulation mode="VOLTAGE" regulating="true"/>
            </iidm:generator>
            <iidm:load id="B70-L" loadType="UNDEFINED" p0="66.0" q0="20.0" bus="B70" connectableBus="B70"/>
        </iidm:voltageLevel>
    </iidm:substation>
    <iidm:substation id="S71">
        <iidm:voltageLevel id="VL71" nominalV="138.0" topologyKind="BUS_BREAKER">
            <iidm:busBreakerTopology>
                <iidm:bus id="B71" name="NPortsmt  V2" v="136.206" angle="22.15"/>
            </iidm:busBreakerTopology>
        </iidm:voltageLevel>
    </iidm:substation>
    <iidm:substation id="S72">
        <iidm:voltageLevel id="VL72" nominalV="138.0" topologyKind="BUS_BREAKER">
            <iidm:busBreakerTopology>
                <iidm:bus id="B72" name="Hillsbro  V2" v="135.24" angle="20.98"/>
            </iidm:busBreakerTopology>
            <iidm:generator id="B72-G" energySource="OTHER" minP="-9999.0" maxP="9999.0" targetP="-12.0" localTargetV="135.24" localTargetQ="0.0" bus="B72" connectableBus="B72">
                <iidm:minMaxReactiveLimits minQ="-100.0" maxQ="100.0"/>
                <iidm:voltageRegulation mode="VOLTAGE" regulating="true"/>
            </iidm:generator>
        </iidm:voltageLevel>
    </iidm:substation>
    <iidm:substation id="S73">
        <iidm:voltageLevel id="VL73" nominalV="138.0" topologyKind="BUS_BREAKER">
            <iidm:busBreakerTopology>
                <iidm:bus id="B73" name="Sargents  V2" v="136.758" angle="21.94"/>
            </iidm:busBreakerTopology>
            <iidm:generator id="B73-G" energySource="OTHER" minP="-9999.0" maxP="9999.0" targetP="-6.0" localTargetV="136.758" localTargetQ="0.0" bus="B73" connectableBus="B73">
                <iidm:minMaxReactiveLimits minQ="-100.0" maxQ="100.0"/>
                <iidm:voltageRegulation mode="VOLTAGE" regulating="true"/>
            </iidm:generator>
        </iidm:voltageLevel>
    </iidm:substation>
    <iidm:substation id="S74">
        <iidm:voltageLevel id="VL74" nominalV="138.0" topologyKind="BUS_BREAKER">
            <iidm:busBreakerTopology>
                <iidm:bus id="B74" name="Bellefnt  V2" v="132.204" angle="21.64"/>
            </iidm:busBreakerTopology>
            <iidm:generator id="B74-G" energySource="OTHER" minP="-9999.0" maxP="9999.0" targetP="0.0" localTargetV="132.204" localTargetQ="0.0" bus="B74" connectableBus="B74">
                <iidm:minMaxReactiveLimits minQ="-6.0" maxQ="9.0"/>
                <iidm:voltageRegulation mode="VOLTAGE" regulating="true"/>
            </iidm:generator>
            <iidm:load id="B74-L" loadType="UNDEFINED" p0="68.0" q0="27.0" bus="B74" connectableBus="B74"/>
            <iidm:shuntCompensator id="B74-SH" sectionCount="1" bus="B74" connectableBus="B74">
                <iidm:shuntLinearModel bPerSection="6.30119722747322E-4" maximumSectionCount="1"/>
            </iidm:shuntCompensator>
        </iidm:voltageLevel>
    </iidm:substation>
    <iidm:substation id="S75">
        <iidm:voltageLevel id="VL75" nominalV="138.0" topologyKind="BUS_BREAKER">
            <iidm:busBreakerTopology>
                <iidm:bus id="B75" name="SthPoint  V2" v="133.446" angle="22.91"/>
            </iidm:busBreakerTopology>
            <iidm:load id="B75-L" loadType="UNDEFINED" p0="47.0" q0="11.0" bus="B75" connectableBus="B75"/>
        </iidm:voltageLevel>
    </iidm:substation>
    <iidm:substation id="S76">
        <iidm:voltageLevel id="VL76" nominalV="138.0" topologyKind="BUS_BREAKER">
            <iidm:busBreakerTopology>
                <iidm:bus id="B76" name="Darrah    V2" v="130.134" angle="21.77"/>
            </iidm:busBreakerTopology>
            <iidm:generator id="B76-G" energySource="OTHER" minP="-9999.0" maxP="9999.0" targetP="0.0" localTargetV="130.134" localTargetQ="0.0" bus="B76" connectableBus="B76">
                <iidm:minMaxReactiveLimits minQ="-8.0" maxQ="23.0"/>
                <iidm:voltageRegulation mode="VOLTAGE" regulating="true"/>
            </iidm:generator>
            <iidm:load id="B76-L" loadType="UNDEFINED" p0="68.0" q0="36.0" bus="B76" connectableBus="B76"/>
        </iidm:voltageLevel>
    </iidm:substation>
    <iidm:substation id="S77">
        <iidm:voltageLevel id="VL77" nominalV="138.0" topologyKind="BUS_BREAKER">
            <iidm:busBreakerTopology>
                <iidm:bus id="B77" name="Turner    V2" v="138.828" angle="26.72"/>
            </iidm:busBreakerTopology>
            <iidm:generator id="B77-G" energySource="OTHER" minP="-9999.0" maxP="9999.0" targetP="0.0" localTargetV="138.828" localTargetQ="0.0" bus="B77" connectableBus="B77">
                <iidm:minMaxReactiveLimits minQ="-20.0" maxQ="70.0"/>
                <iidm:voltageRegulation mode="VOLTAGE" regulating="true"/>
            </iidm:generator>
            <iidm:load id="B77-L" loadType="UNDEFINED" p0="61.0" q0="28.0" bus="B77" connectableBus="B77"/>
        </iidm:voltageLevel>
    </iidm:substation>
    <iidm:substation id="S78">
        <iidm:voltageLevel id="VL78" nominalV="138.0" topologyKind="BUS_BREAKER">
            <iidm:busBreakerTopology>
                <iidm:bus id="B78" name="Chemical  V2" v="138.414" angle="26.42"/>
            </iidm:busBreakerTopology>
            <iidm:load id="B78-L" loadType="UNDEFINED" p0="71.0" q0="26.0" bus="B78" connectableBus="B78"/>
        </iidm:voltageLevel>
    </iidm:substation>
    <iidm:substation id="S79">
        <iidm:voltageLevel id="VL79" nominalV="138.0" topologyKind="BUS_BREAKER">
            <iidm:busBreakerTopology>
                <iidm:bus id="B79" name="CapitlHl  V2" v="139.242" angle="26.72"/>
            </iidm:busBreakerTopology>
            <iidm:load id="B79-L" loadType="UNDEFINED" p0="39.0" q0="32.0" bus="B79" connectableBus="B79"/>
            <iidm:shuntCompensator id="B79-SH" sectionCount="1" bus="B79" connectableBus="B79">
                <iidm:shuntLinearModel bPerSection="0.0010501995379122034" maximumSectionCount="1"/>
            </iidm:shuntCompensator>
        </iidm:voltageLevel>
    </iidm:substation>
    <iidm:substation id="S80">
        <iidm:voltageLevel id="VL80" nominalV="138.0" topologyKind="BUS_BREAKER">
            <iidm:busBreakerTopology>
                <iidm:bus id="B80" name="CabinCrk  V2" v="143.52" angle="28.96"/>
            </iidm:busBreakerTopology>
            <iidm:generator id="B80-G" energySource="OTHER" minP="-9999.0" maxP="9999.0" targetP="477.0" localTargetV="143.52" localTargetQ="0.0" bus="B80" connectableBus="B80">
                <iidm:minMaxReactiveLimits minQ="-165.0" maxQ="280.0"/>
                <iidm:voltageRegulation mode="VOLTAGE" regulating="true"/>
            </iidm:generator>
            <iidm:load id="B80-L" loadType="UNDEFINED" p0="130.0" q0="26.0" bus="B80" connectableBus="B80"/>
        </iidm:voltageLevel>
        <iidm:voltageLevel id="VL81" nominalV="345.0" topologyKind="BUS_BREAKER">
            <iidm:busBreakerTopology>
                <iidm:bus id="B81" name="Kanawha   V1" v="343.965" angle="28.1"/>
            </iidm:busBreakerTopology>
        </iidm:voltageLevel>
        <iidm:twoWindingsTransformer id="T81-80-1" r="0.0" x="7.046279999999999" ratedU1="322.57500000000005" ratedU2="138.0" bus1="B81" connectableBus1="B81" voltageLevelId1="VL81" bus2="B80" connectableBus2="B80" voltageLevelId2="VL80"/>
    </iidm:substation>
    <iidm:substation id="S82">
        <iidm:voltageLevel id="VL82" nominalV="138.0" topologyKind="BUS_BREAKER">
            <iidm:busBreakerTopology>
                <iidm:bus id="B82" name="Logan     V2" v="136.482" angle="27.24"/>
            </iidm:busBreakerTopology>
            <iidm:load id="B82-L" loadType="UNDEFINED" p0="54.0" q0="27.0" bus="B82" connectableBus="B82"/>
            <iidm:shuntCompensator id="B82-SH" sectionCount="1" bus="B82" connectableBus="B82">
                <iidm:shuntLinearModel bPerSection="0.0010501995379122034" maximumSectionCount="1"/>
            </iidm:shuntCompensator>
        </iidm:voltageLevel>
    </iidm:substation>
    <iidm:substation id="S83">
        <iidm:voltageLevel id="VL83" nominalV="138.0" topologyKind="BUS_BREAKER">
            <iidm:busBreakerTopology>
                <iidm:bus id="B83" name="Sprigg    V2" v="135.93" angle="28.42"/>
            </iidm:busBreakerTopology>
            <iidm:load id="B83-L" loadType="UNDEFINED" p0="20.0" q0="10.0" bus="B83" connectableBus="B83"/>
            <iidm:shuntCompensator id="B83-SH" sectionCount="1" bus="B83" connectableBus="B83">
                <iidm:shuntLinearModel bPerSection="5.250997689561017E-4" maximumSectionCount="1"/>
            </iidm:shuntCompensator>
        </iidm:voltageLevel>
    </iidm:substation>
    <iidm:substation id="S84">
        <iidm:voltageLevel id="VL84" nominalV="138.0" topologyKind="BUS_BREAKER">
            <iidm:busBreakerTopology>
                <iidm:bus id="B84" name="BetsyLne  V2" v="135.24" angle="30.95"/>
            </iidm:busBreakerTopology>
            <iidm:load id="B84-L" loadType="UNDEFINED" p0="11.0" q0="7.0" bus="B84" connectableBus="B84"/>
        </iidm:voltageLevel>
    </iidm:substation>
    <iidm:substation id="S85">
        <iidm:voltageLevel id="VL85" nominalV="138.0" topologyKind="BUS_BREAKER">
            <iidm:busBreakerTopology>
                <iidm:bus id="B85" name="BeaverCk  V2" v="135.93" angle="32.51"/>
            </iidm:busBreakerTopology>
            <iidm:generator id="B85-G" energySource="OTHER" minP="-9999.0" maxP="9999.0" targetP="0.0" localTargetV="135.93" localTargetQ="0.0" bus="B85" connectableBus="B85">
                <iidm:minMaxReactiveLimits minQ="-8.0" maxQ="23.0"/>
                <iidm:voltageRegulation mode="VOLTAGE" regulating="true"/>
            </iidm:generator>
            <iidm:load id="B85-L" loadType="UNDEFINED" p0="24.0" q0="15.0" bus="B85" connectableBus="B85"/>
        </iidm:voltageLevel>
    </iidm:substation>
    <iidm:substation id="S86">
        <iidm:voltageLevel id="VL86" nominalV="138.0" topologyKind="BUS_BREAKER">
            <iidm:busBreakerTopology>
                <iidm:bus id="B86" name="Hazard    V2" v="136.206" angle="31.14"/>
            </iidm:busBreakerTopology>
            <iidm:load id="B86-L" loadType="UNDEFINED" p0="21.0" q0="10.0" bus="B86" connectableBus="B86"/>
        </iidm:voltageLevel>
    </iidm:substation>
    <iidm:substation id="S87">
        <iidm:voltageLevel id="VL87" nominalV="161.0" topologyKind="BUS_BREAKER">
            <iidm:busBreakerTopology>
                <iidm:bus id="B87" name="Pinevlle  V3" v="163.415" angle="31.4"/>
            </iidm:busBreakerTopology>
            <iidm:generator id="B87-G" energySource="OTHER" minP="-9999.0" maxP="9999.0" targetP="4.0" localTargetV="163.415" localTargetQ="0.0" bus="B87" connectableBus="B87">
                <iidm:minMaxReactiveLimits minQ="-100.0" maxQ="1000.0"/>
                <iidm:voltageRegulation mode="VOLTAGE" regulating="true"/>
            </iidm:generator>
        </iidm:voltageLevel>
    </iidm:substation>
    <iidm:substation id="S88">
        <iidm:voltageLevel id="VL88" nominalV="138.0" topologyKind="BUS_BREAKER">
            <iidm:busBreakerTopology>
                <iidm:bus id="B88" name="Fremont   V2" v="136.206" angle="35.64"/>
            </iidm:busBreakerTopology>
            <iidm:load id="B88-L" loadType="UNDEFINED" p0="48.0" q0="10.0" bus="B88" connectableBus="B88"/>
        </iidm:voltageLevel>
    </iidm:substation>
    <iidm:substation id="S89">
        <iidm:voltageLevel id="VL89" nominalV="138.0" topologyKind="BUS_BREAKER">
            <iidm:busBreakerTopology>
                <iidm:bus id="B89" name="ClinchRv  V2" v="138.69" angle="39.69"/>
            </iidm:busBreakerTopology>
            <iidm:generator id="B89-G" energySource="OTHER" minP="-9999.0" maxP="9999.0" targetP="607.0" localTargetV="138.69" localTargetQ="0.0" bus="B89" connectableBus="B89">
                <iidm:minMaxReactiveLimits minQ="-210.0" maxQ="300.0"/>
                <iidm:voltageRegulation mode="VOLTAGE" regulating="true"/>
            </iidm:generator>
        </iidm:voltageLevel>
    </iidm:substation>
    <iidm:substation id="S90">
        <iidm:voltageLevel id="VL90" nominalV="138.0" topologyKind="BUS_BREAKER">
            <iidm:busBreakerTopology>
                <iidm:bus id="B90" name="Holston   V2" v="135.93" angle="33.29"/>
            </iidm:busBreakerTopology>
            <iidm:generator id="B90-G" energySource="OTHER" minP="-9999.0" maxP="9999.0" targetP="-85.0" localTargetV="135.93" localTargetQ="0.0" bus="B90" connectableBus="B90">
                <iidm:minMaxReactiveLimits minQ="-300.0" maxQ="300.0"/>
                <iidm:voltageRegulation mode="VOLTAGE" regulating="true"/>
            </iidm:generator>
            <iidm:load id="B90-L" loadType="UNDEFINED" p0="78.0" q0="42.0" bus="B90" connectableBus="B90"/>
        </iidm:voltageLevel>
    </iidm:substation>
    <iidm:substation id="S91">
        <iidm:voltageLevel id="VL91" nominalV="138.0" topologyKind="BUS_BREAKER">
            <iidm:busBreakerTopology>
                <iidm:bus id="B91" name="HolstonT  V2" v="135.24" angle="33.31"/>
            </iidm:busBreakerTopology>
            <iidm:generator id="B91-G" energySource="OTHER" minP="-9999.0" maxP="9999.0" targetP="-10.0" localTargetV="135.24" localTargetQ="0.0" bus="B91" connectableBus="B91">
                <iidm:minMaxReactiveLimits minQ="-100.0" maxQ="100.0"/>
                <iidm:voltageRegulation mode="VOLTAGE" regulating="true"/>
            </iidm:generator>
        </iidm:voltageLevel>
    </iidm:substation>
    <iidm:substation id="S92">
        <iidm:voltageLevel id="VL92" nominalV="138.0" topologyKind="BUS_BREAKER">
            <iidm:busBreakerTopology>
                <iidm:bus id="B92" name="Saltvlle  V2" v="137.034" angle="33.8"/>
            </iidm:busBreakerTopology>
            <iidm:generator id="B92-G" energySource="OTHER" minP="-9999.0" maxP="9999.0" targetP="0.0" localTargetV="136.62" localTargetQ="0.0" bus="B92" connectableBus="B92">
                <iidm:minMaxReactiveLimits minQ="-3.0" maxQ="9.0"/>
                <iidm:voltageRegulation mode="VOLTAGE" regulating="true"/>
            </iidm:generator>
            <iidm:load id="B92-L" loadType="UNDEFINED" p0="65.0" q0="10.0" bus="B92" connectableBus="B92"/>
        </iidm:voltageLevel>
    </iidm:substation>
    <iidm:substation id="S93">
        <iidm:voltageLevel id="VL93" nominalV="138.0" topologyKind="BUS_BREAKER">
            <iidm:busBreakerTopology>
                <iidm:bus id="B93" name="Tazewell  V2" v="136.206" angle="30.79"/>
            </iidm:busBreakerTopology>
            <iidm:load id="B93-L" loadType="UNDEFINED" p0="12.0" q0="7.0" bus="B93" connectableBus="B93"/>
        </iidm:voltageLevel>
    </iidm:substation>
    <iidm:substation id="S94">
        <iidm:voltageLevel id="VL94" nominalV="138.0" topologyKind="BUS_BREAKER">
            <iidm:busBreakerTopology>
                <iidm:bus id="B94" name="Switchbk  V2" v="136.758" angle="28.64"/>
            </iidm:busBreakerTopology>
            <iidm:load id="B94-L" loadType="UNDEFINED" p0="30.0" q0="16.0" bus="B94" connectableBus="B94"/>
        </iidm:voltageLevel>
    </iidm:substation>
    <iidm:substation id="S95">
        <iidm:voltageLevel id="VL95" nominalV="138.0" topologyKind="BUS_BREAKER">
            <iidm:busBreakerTopology>
                <iidm:bus id="B95" name="Caldwell  V2" v="135.378" angle="27.67"/>
            </iidm:busBreakerTopology>
            <iidm:load id="B95-L" loadType="UNDEFINED" p0="42.0" q0="31.0" bus="B95" connectableBus="B95"/>
        </iidm:voltageLevel>
    </iidm:substation>
    <iidm:substation id="S96">
        <iidm:voltageLevel id="VL96" nominalV="138.0" topologyKind="BUS_BREAKER">
            <iidm:busBreakerTopology>
                <iidm:bus id="B96" name="Baileysv  V2" v="137.034" angle="27.51"/>
            </iidm:busBreakerTopology>
            <iidm:load id="B96-L" loadType="UNDEFINED" p0="38.0" q0="15.0" bus="B96" connectableBus="B96"/>
        </iidm:voltageLevel>
    </iidm:substation>
    <iidm:substation id="S97">
        <iidm:voltageLevel id="VL97" nominalV="138.0" topologyKind="BUS_BREAKER">
            <iidm:busBreakerTopology>
                <iidm:bus id="B97" name="Sundial   V2" v="139.51799999999997" angle="27.88"/>
            </iidm:busBreakerTopology>
            <iidm:load id="B97-L" loadType="UNDEFINED" p0="15.0" q0="9.0" bus="B97" connectableBus="B97"/>
        </iidm:voltageLevel>
    </iidm:substation>
    <iidm:substation id="S98">
        <iidm:voltageLevel id="VL98" nominalV="138.0" topologyKind="BUS_BREAKER">
            <iidm:busBreakerTopology>
                <iidm:bus id="B98" name="Bradley   V2" v="141.312" angle="27.4"/>
            </iidm:busBreakerTopology>
            <iidm:load id="B98-L" loadType="UNDEFINED" p0="34.0" q0="8.0" bus="B98" connectableBus="B98"/>
        </iidm:voltageLevel>
    </iidm:substation>
    <iidm:substation id="S99">
        <iidm:voltageLevel id="VL99" nominalV="138.0" topologyKind="BUS_BREAKER">
            <iidm:busBreakerTopology>
                <iidm:bus id="B99" name="Hinton    V2" v="139.38" angle="27.04"/>
            </iidm:busBreakerTopology>
...